Circuit: * C:\WORKS\PyCharmProjects\001_TRAINING\BASE\003_LTSPICE\EX7\LT1116_AI01_zero_crossing_detect.asc

Direct Newton iteration for .op point succeeded.

Date: Sun Nov 15 19:40:43 2020
Total elapsed time: 0.271 seconds.

tnom = 27
temp = 27
method = modified trap
totiter = 5805
traniter = 5788
tranpoints = 1843
accept = 1533
rejected = 310
matrix size = 16
fillins = 8
solver = Normal
Matrix Compiler1: 1.06 KB object code size  0.7/0.4/[0.2]
Matrix Compiler2: off  [0.4]/0.5/0.7

