Circuit: * Z:\home\tlehmann\simulation\ltspice\exltspy\tb_pulsels.asc

Ignoring BSIM parameter XL
Ignoring BSIM parameter XW
Ignoring BSIM parameter XL
Ignoring BSIM parameter XW
Warning: Pd = 0 is less than W.
Warning: Ps = 0 is less than W.
Warning: Pd = 0 is less than W.
Warning: Ps = 0 is less than W.
Warning: Pd = 0 is less than W.
Warning: Ps = 0 is less than W.
Warning: Pd = 0 is less than W.
Warning: Ps = 0 is less than W.
Warning: Pd = 0 is less than W.
Warning: Ps = 0 is less than W.
Warning: Pd = 0 is less than W.
Warning: Ps = 0 is less than W.
Warning: Pd = 0 is less than W.
Warning: Ps = 0 is less than W.
Warning: Pd = 0 is less than W.
Warning: Ps = 0 is less than W.
Direct Newton iteration for .op point succeeded.
.step vddh=2
.step vddh=3
.step vddh=4

Date: Wed Sep 16 12:46:54 2015
Total elapsed time: 0.651 seconds.

tnom = 27
temp = 27
method = modified trap
totiter = 2994
traniter = 2947
tranpoints = 1162
accept = 1109
rejected = 53
matrix size = 33
fillins = 56
solver = Normal
Thread vector: 49.0/32.8[4] 14.0/5.8[4] 3.1/1.9[4] 0.3/1.1[1]  2592/500
Matrix Compiler1: 5.64 KB object code size  1.6/1.2/[0.5]
Matrix Compiler2: 4.58 KB object code size  0.8/1.0/[0.6]


