Circuit: * C:\WORKS\PyCharmProjects\001_TRAINING\BASE\003_LTSPICE\EX1\rectifier.asc

.OP point found by inspection.
.step cdc=1e-005
.step cdc=2e-005
.step cdc=3e-005
.step cdc=4e-005
.step cdc=5e-005

Date: Sun Nov 15 13:07:45 2020
Total elapsed time: 0.548 seconds.

tnom = 27
temp = 27
method = modified trap
totiter = 4129
traniter = 4129
tranpoints = 1736
accept = 1496
rejected = 240
matrix size = 9
fillins = 4
solver = Normal
Matrix Compiler1: 590 bytes object code size  0.3/0.2/[0.1]
Matrix Compiler2: 715 bytes object code size  0.2/0.2/[0.1]

