Circuit: * C:\WORKS\PyCharmProjects\001_TRAINING\BASE\003_LTSPICE\EX7\LTC6405_MixerApp.asc

Direct Newton iteration failed to find .op point.  (Use ".option noopiter" to skip.)
Starting Gmin stepping
Gmin = 10
Gmin = 1.07374
Gmin = 0.115292
Gmin = 0.0123794
Gmin = 0.00132923
Gmin = 0.000142725
Gmin = 1.5325e-005
Gmin = 1.6455e-006
Gmin = 1.76685e-007
Gmin = 1.89714e-008
vernier = 0.5
vernier = 0.25
Gmin = 8.09808e-009
vernier = 0.333333
vernier = 0.444444
Gmin = 3.59448e-009
vernier = 0.592592
Gmin = 1.02948e-009
vernier = 0.790123
vernier = 1
Gmin = 1.42975e-010
Gmin = 1.53518e-011
Gmin = 1.64839e-012
Gmin = 1.76994e-013
Gmin = 0
Gmin stepping succeeded in finding the operating point.


Date: Sun Nov 15 19:34:47 2020
Total elapsed time: 1.035 seconds.

tnom = 27
temp = 27
method = modified trap
totiter = 23905
traniter = 23079
tranpoints = 9825
accept = 6238
rejected = 3587
matrix size = 39
fillins = 35
solver = Normal
Thread vector: 15.0/10.2[4] 7.9/3.8[4] 3.0/2.4[4] 0.4/6.3[1]  2592/500
Matrix Compiler1: 4.10 KB object code size  2.1/1.4/[0.5]
Matrix Compiler2: off  [1.1]/1.4/2.7

