Circuit: * C:\WORKS\PyCharmProjects\001_TRAINING\BASE\003_LTSPICE\EX7\LTC6115_TA02_16BitIsenseVsense.asc

Warning: Multiple definitions of model "u1:desd" Type: Diode
Warning: Multiple definitions of model "u1:dbias" Type: Diode
Per .tran options, skipping operating point for transient analysis.
Ignoring empty pin current: Ix(u1:2)
Ignoring empty pin current: Ix(u1:8)
Ignoring empty pin current: Ix(u1:10)

Date: Sun Nov 15 19:36:14 2020
Total elapsed time: 0.182 seconds.

tnom = 27
temp = 27
method = modified trap
totiter = 3060
traniter = 3060
tranpoints = 1477
accept = 1380
rejected = 97
matrix size = 27
fillins = 9
solver = Normal
Thread vector: 16.0/10.9[2] 5.5/3.2[2] 2.3/1.6[2] 0.3/0.9[1]  2592/500
Matrix Compiler1: 1.79 KB object code size  1.0/0.7/[0.3]
Matrix Compiler2: 2.39 KB object code size  0.5/0.8/[0.3]

