Circuit: * C:\WORKS\PyCharmProjects\001_TRAINING\BASE\003_LTSPICE\EX7\Draft1.asc

Direct Newton iteration for .op point succeeded.
.step run=1
.step run=2


Measurement: vin_max
  step	MAX(v(in))	FROM	TO
     1	(0dB,0°)	1	100000
     2	(0dB,0°)	1	100000

Measurement: vout_max
  step	MAX(v(out))	FROM	TO
     1	(6.02057dB,-5.33372e-005°)	1	100000
     2	(6.02057dB,-5.33372e-005°)	1	100000

Measurement: gain
  step	vout_max/vin_max
     1	(6.02057dB,-5.33372e-005°)
     2	(6.02057dB,-5.33372e-005°)

Measurement "vout1m" FAIL'ed


Date: Thu Nov 19 23:05:28 2020
Total elapsed time: 11.591 seconds.

tnom = 27
temp = 27
method = trap
totiter = 4
traniter = 0
tranpoints = 0
accept = 0
rejected = 0
matrix size = 14
fillins = 7
solver = Normal
Matrix Compiler1:      53 opcodes
Matrix Compiler2: 1.60 KB object code size
