Circuit: * C:\WORKS\PyCharmProjects\001_TRAINING\BASE\003_LTSPICE\EX7\IdealDiodeExample.asc


Date: Sun Nov 15 19:48:41 2020
Total elapsed time: 0.372 seconds.

tnom = 27
temp = 27
method = trap
totiter = 20005
traniter = 0
tranpoints = 0
accept = 0
rejected = 0
matrix size = 2
fillins = 0
solver = Normal
Matrix Compiler1: 36 bytes object code size  0.1/0.0/[0.0]
Matrix Compiler2: off  [0.0]/0.1/0.1

