Circuit: * C:\WORKS\PyCharmProjects\001_TRAINING\BASE\003_LTSPICE\EX7\LT1637_LT1468_LT5400_DC2135A_SARADCDriver.asc

WARNING: Node NC_01 is floating.

Direct Newton iteration failed to find .op point.  (Use ".option noopiter" to skip.)
Starting Gmin stepping
Gmin = 10
Gmin = 1.07374
Gmin = 0.115292
Gmin = 0.0123794
Gmin = 0.00132923
Gmin = 0.000142725
Gmin = 1.5325e-005
Gmin = 1.6455e-006
Gmin = 1.76685e-007
Gmin = 1.89714e-008
Gmin = 2.03704e-009
vernier = 0.5
vernier = 0.25
vernier = 0.125
vernier = 0.0625
vernier = 0.03125
Gmin = 8.3437e-010
vernier = 0.015625
vernier = 0.0078125
vernier = 0.0104167
Gmin = 8.19848e-010
vernier = 0.0138889
vernier = 0.0185185
Gmin = 7.93061e-010
vernier = 0.0246913
Gmin = 7.51473e-010
vernier = 0.0329218
vernier = 0.0438957
Gmin = 6.88117e-010
vernier = 0.0585276
vernier = 0.0780367
Gmin = 5.98688e-010
vernier = 0.104049
Gmin = 4.78059e-010
vernier = 0.138732
vernier = 0.184976
Gmin = 3.31579e-010
vernier = 0.246634
vernier = 0.328846
Gmin = 1.86839e-010
vernier = 0.438461
Gmin = 7.48245e-011
vernier = 0.584614
vernier = 0.779486
Gmin = 1.74362e-011
vernier = 1
Gmin = 2.14347e-012
Gmin = 2.30153e-013
Gmin = 0
Gmin stepping succeeded in finding the operating point.


Date: Sun Nov 15 19:31:00 2020
Total elapsed time: 0.437 seconds.

tnom = 27
temp = 27
method = modified trap
totiter = 5511
traniter = 4070
tranpoints = 1600
accept = 1422
rejected = 178
matrix size = 38
fillins = 72
solver = Normal
Thread vector: 31.8/20.6[4] 6.9/4.9[4] 4.0/2.4[4] 1.0/7.0[1]  2592/500
Matrix Compiler1: 6.66 KB object code size  4.8/3.0/[1.5]
Matrix Compiler2: off  [1.5]/1.8/3.2

