Circuit: * C:\WORKS\PyCharmProjects\001_TRAINING\BASE\003_LTSPICE\EX7\LTC2064_TA06_LT1790_SEtoDiffADCDriver.asc

Direct Newton iteration failed to find .op point.  (Use ".option noopiter" to skip.)
Starting Gmin stepping
Gmin = 10
Gmin = 1.07374
Gmin = 0.115292
vernier = 0.5
Gmin = 0.02388
vernier = 0.25
vernier = 0.333333
Gmin = 0.0138709
vernier = 0.166667
vernier = 0.222222
Gmin = 0.00912966
vernier = 0.296296
vernier = 0.148148
Gmin = 0.00562272
vernier = 0.074074
vernier = 0.037037
vernier = 0.0185185
vernier = 0.00925925
vernier = 0.00462963
vernier = 0.00231481
vernier = 0.00115741
vernier = 0.000578703
vernier = 0.000434027
Gmin = 0
Gmin = 0
Gmin stepping failed

Starting source stepping with srcstepmethod=0
Source Step = 3.0303%
Source Step = 33.3333%
Source Step = 38.2576%
Source Step = 40.1515%
Source Step = 42.0455%
Source Step = 43.9394%
Source Step = 45.8333%
vernier = 0.09375
Source Step = 48.2008%
Source Step = 51.0417%
Source Step = 53.8826%
Source Step = 56.7235%
Source Step = 59.5644%
vernier = 0.140625
Source Step = 62.9735%
Source Step = 67.2348%
Source Step = 71.4962%
Source Step = 75.7576%
Source Step = 80.0189%
vernier = 0.210938
Source Step = 84.9195%
Source Step = 91.3116%
Source Step = 97.7036%
Source stepping succeeded in finding the operating point.


Date: Sun Nov 15 19:33:23 2020
Total elapsed time: 0.746 seconds.

tnom = 27
temp = 27
method = modified trap
totiter = 6409
traniter = 3304
tranpoints = 1620
accept = 1424
rejected = 196
matrix size = 60
fillins = 118
solver = Normal
Thread vector: 30.5/15.9[4] 9.6/5.2[4] 3.2/2.0[4] 0.6/8.9[1]  2592/500
Matrix Compiler1: 8.09 KB object code size  4.1/2.8/[1.3]
Matrix Compiler2: off  [1.5]/2.3/3.9

